
Version,
  8.9;                                    !- Version Identifier

Timestep,
  6;                                      !- Number of Timesteps per Hour

LifeCycleCost:Parameters,
  Life Cycle Cost Parameters,             !- Name
  EndOfYear,                              !- Discounting Convention
  ConstantDollar,                         !- Inflation Approach
  0.03,                                   !- Real Discount Rate
  ,                                       !- Nominal Discount Rate
  ,                                       !- Inflation
  ,                                       !- Base Date Month
  2011,                                   !- Base Date Year
  ,                                       !- Service Date Month
  2011,                                   !- Service Date Year
  25,                                     !- Length of Study Period in Years
  ,                                       !- Tax rate
  None;                                   !- Depreciation Method

LifeCycleCost:UsePriceEscalation,
  U.S. Avg  Commercial-Electricity,       !- LCC Price Escalation Name
  Electricity,                            !- Resource
  2011,                                   !- Escalation Start Year
  January,                                !- Escalation Start Month
  0.9838,                                 !- Year Escalation 1
  0.9730,                                 !- Year Escalation 2
  0.9632,                                 !- Year Escalation 3
  0.9611,                                 !- Year Escalation 4
  0.9571,                                 !- Year Escalation 5
  0.9553,                                 !- Year Escalation 6
  0.9539,                                 !- Year Escalation 7
  0.9521,                                 !- Year Escalation 8
  0.9546,                                 !- Year Escalation 9
  0.9550,                                 !- Year Escalation 10
  0.9553,                                 !- Year Escalation 11
  0.9564,                                 !- Year Escalation 12
  0.9575,                                 !- Year Escalation 13
  0.9596,                                 !- Year Escalation 14
  0.9618,                                 !- Year Escalation 15
  0.9614,                                 !- Year Escalation 16
  0.9618,                                 !- Year Escalation 17
  0.9618,                                 !- Year Escalation 18
  0.9593,                                 !- Year Escalation 19
  0.9589,                                 !- Year Escalation 20
  0.9607,                                 !- Year Escalation 21
  0.9625,                                 !- Year Escalation 22
  0.9650,                                 !- Year Escalation 23
  0.9708,                                 !- Year Escalation 24
  0.9751,                                 !- Year Escalation 25
  0.9762,                                 !- Year Escalation 26
  0.9766,                                 !- Year Escalation 27
  0.9766,                                 !- Year Escalation 28
  0.9769,                                 !- Year Escalation 29
  0.9773;                                 !- Year Escalation 30

LifeCycleCost:UsePriceEscalation,
  U.S. Avg  Commercial-Distillate Oil,    !- LCC Price Escalation Name
  FuelOil#1,                              !- Resource
  2011,                                   !- Escalation Start Year
  January,                                !- Escalation Start Month
  0.9714,                                 !- Year Escalation 1
  0.9730,                                 !- Year Escalation 2
  0.9942,                                 !- Year Escalation 3
  1.0164,                                 !- Year Escalation 4
  1.0541,                                 !- Year Escalation 5
  1.0928,                                 !- Year Escalation 6
  1.1267,                                 !- Year Escalation 7
  1.1580,                                 !- Year Escalation 8
  1.1792,                                 !- Year Escalation 9
  1.1967,                                 !- Year Escalation 10
  1.2200,                                 !- Year Escalation 11
  1.2333,                                 !- Year Escalation 12
  1.2566,                                 !- Year Escalation 13
  1.2709,                                 !- Year Escalation 14
  1.2826,                                 !- Year Escalation 15
  1.2985,                                 !- Year Escalation 16
  1.3102,                                 !- Year Escalation 17
  1.3250,                                 !- Year Escalation 18
  1.3261,                                 !- Year Escalation 19
  1.3282,                                 !- Year Escalation 20
  1.3324,                                 !- Year Escalation 21
  1.3356,                                 !- Year Escalation 22
  1.3431,                                 !- Year Escalation 23
  1.3510,                                 !- Year Escalation 24
  1.3568,                                 !- Year Escalation 25
  1.3606,                                 !- Year Escalation 26
  1.3637,                                 !- Year Escalation 27
  1.3674,                                 !- Year Escalation 28
  1.3706,                                 !- Year Escalation 29
  1.3743;                                 !- Year Escalation 30

LifeCycleCost:UsePriceEscalation,
  U.S. Avg  Commercial-Residual Oil,      !- LCC Price Escalation Name
  FuelOil#2,                              !- Resource
  2011,                                   !- Escalation Start Year
  January,                                !- Escalation Start Month
  0.8469,                                 !- Year Escalation 1
  0.8257,                                 !- Year Escalation 2
  0.8681,                                 !- Year Escalation 3
  0.8988,                                 !- Year Escalation 4
  0.9289,                                 !- Year Escalation 5
  0.9604,                                 !- Year Escalation 6
  0.9897,                                 !- Year Escalation 7
  1.0075,                                 !- Year Escalation 8
  1.0314,                                 !- Year Escalation 9
  1.0554,                                 !- Year Escalation 10
  1.0861,                                 !- Year Escalation 11
  1.1278,                                 !- Year Escalation 12
  1.1497,                                 !- Year Escalation 13
  1.1620,                                 !- Year Escalation 14
  1.1743,                                 !- Year Escalation 15
  1.1852,                                 !- Year Escalation 16
  1.1948,                                 !- Year Escalation 17
  1.2037,                                 !- Year Escalation 18
  1.2071,                                 !- Year Escalation 19
  1.2119,                                 !- Year Escalation 20
  1.2139,                                 !- Year Escalation 21
  1.2194,                                 !- Year Escalation 22
  1.2276,                                 !- Year Escalation 23
  1.2365,                                 !- Year Escalation 24
  1.2420,                                 !- Year Escalation 25
  1.2461,                                 !- Year Escalation 26
  1.2509,                                 !- Year Escalation 27
  1.2550,                                 !- Year Escalation 28
  1.2591,                                 !- Year Escalation 29
  1.2638;                                 !- Year Escalation 30

LifeCycleCost:UsePriceEscalation,
  U.S. Avg  Commercial-Natural gas,       !- LCC Price Escalation Name
  NaturalGas,                             !- Resource
  2011,                                   !- Escalation Start Year
  January,                                !- Escalation Start Month
  0.9823,                                 !- Year Escalation 1
  0.9557,                                 !- Year Escalation 2
  0.9279,                                 !- Year Escalation 3
  0.9257,                                 !- Year Escalation 4
  0.9346,                                 !- Year Escalation 5
  0.9412,                                 !- Year Escalation 6
  0.9512,                                 !- Year Escalation 7
  0.9645,                                 !- Year Escalation 8
  0.9856,                                 !- Year Escalation 9
  1.0067,                                 !- Year Escalation 10
  1.0222,                                 !- Year Escalation 11
  1.0410,                                 !- Year Escalation 12
  1.0610,                                 !- Year Escalation 13
  1.0787,                                 !- Year Escalation 14
  1.0942,                                 !- Year Escalation 15
  1.1098,                                 !- Year Escalation 16
  1.1220,                                 !- Year Escalation 17
  1.1308,                                 !- Year Escalation 18
  1.1386,                                 !- Year Escalation 19
  1.1486,                                 !- Year Escalation 20
  1.1619,                                 !- Year Escalation 21
  1.1763,                                 !- Year Escalation 22
  1.1918,                                 !- Year Escalation 23
  1.2118,                                 !- Year Escalation 24
  1.2284,                                 !- Year Escalation 25
  1.2439,                                 !- Year Escalation 26
  1.2605,                                 !- Year Escalation 27
  1.2772,                                 !- Year Escalation 28
  1.2938,                                 !- Year Escalation 29
  1.3115;                                 !- Year Escalation 30

LifeCycleCost:UsePriceEscalation,
  U.S. Avg  Commercial-Coal,              !- LCC Price Escalation Name
  Coal,                                   !- Resource
  2011,                                   !- Escalation Start Year
  January,                                !- Escalation Start Month
  0.9970,                                 !- Year Escalation 1
  1.0089,                                 !- Year Escalation 2
  1.0089,                                 !- Year Escalation 3
  0.9941,                                 !- Year Escalation 4
  0.9941,                                 !- Year Escalation 5
  1.0000,                                 !- Year Escalation 6
  1.0030,                                 !- Year Escalation 7
  1.0059,                                 !- Year Escalation 8
  1.0089,                                 !- Year Escalation 9
  1.0119,                                 !- Year Escalation 10
  1.0148,                                 !- Year Escalation 11
  1.0178,                                 !- Year Escalation 12
  1.0208,                                 !- Year Escalation 13
  1.0267,                                 !- Year Escalation 14
  1.0297,                                 !- Year Escalation 15
  1.0356,                                 !- Year Escalation 16
  1.0415,                                 !- Year Escalation 17
  1.0534,                                 !- Year Escalation 18
  1.0564,                                 !- Year Escalation 19
  1.0593,                                 !- Year Escalation 20
  1.0653,                                 !- Year Escalation 21
  1.0712,                                 !- Year Escalation 22
  1.0742,                                 !- Year Escalation 23
  1.0801,                                 !- Year Escalation 24
  1.0831,                                 !- Year Escalation 25
  1.0831,                                 !- Year Escalation 26
  1.0861,                                 !- Year Escalation 27
  1.0890,                                 !- Year Escalation 28
  1.0920,                                 !- Year Escalation 29
  1.0950;                                 !- Year Escalation 30

Building,
  Building 1,                             !- Name
  0,                                      !- North Axis {deg}
  City,                                   !- Terrain
  ,                                       !- Loads Convergence Tolerance Value
  ,                                       !- Temperature Convergence Tolerance Value {deltaC}
  FullInteriorAndExteriorWithReflections, !- Solar Distribution
  ,                                       !- Maximum Number of Warmup Days
  ;                                       !- Minimum Number of Warmup Days

Zone,
  zone_0,                                 !- Name
  ,                                       !- Direction of Relative North {deg}
  ,                                       !- X Origin {m}
  ,                                       !- Y Origin {m}
  ,                                       !- Z Origin {m}
  ,                                       !- Type
  ,                                       !- Multiplier
  ,                                       !- Ceiling Height {m}
  ,                                       !- Volume {m3}
  ,                                       !- Floor Area {m2}
  ,                                       !- Zone Inside Convection Algorithm
  ;                                       !- Zone Outside Convection Algorithm

BuildingSurface:Detailed,
  zone_0_Srf_0,                           !- Name
  Wall,                                   !- Surface Type
  WALL,                                   !- Construction Name
  zone_0,                                 !- Zone Name
  Outdoors,                               !- Outside Boundary Condition
  ,                                       !- Outside Boundary Condition Object
  Sunexposed,                             !- Sun Exposure
  Windexposed,                            !- Wind Exposure
  ,                                       !- View Factor to Ground
  ,                                       !- Number of Vertices
  0, 0, 3,                                !- X,Y,Z Vertex 1 {m}
  0, 0, 0,                                !- X,Y,Z Vertex 2 {m}
  5, 0, 0,                                !- X,Y,Z Vertex 3 {m}
  5, 0, 3;                                !- X,Y,Z Vertex 4 {m}

BuildingSurface:Detailed,
  zone_0_Srf_1,                           !- Name
  Wall,                                   !- Surface Type
  WALL,                                   !- Construction Name
  zone_0,                                 !- Zone Name
  Outdoors,                               !- Outside Boundary Condition
  ,                                       !- Outside Boundary Condition Object
  Sunexposed,                             !- Sun Exposure
  Windexposed,                            !- Wind Exposure
  ,                                       !- View Factor to Ground
  ,                                       !- Number of Vertices
  5, 0, 3,                                !- X,Y,Z Vertex 1 {m}
  5, 0, 0,                                !- X,Y,Z Vertex 2 {m}
  5, 5, 0,                                !- X,Y,Z Vertex 3 {m}
  5, 5, 3;                                !- X,Y,Z Vertex 4 {m}

BuildingSurface:Detailed,
  zone_0_Srf_2,                           !- Name
  Wall,                                   !- Surface Type
  WALL,                                   !- Construction Name
  zone_0,                                 !- Zone Name
  Outdoors,                               !- Outside Boundary Condition
  ,                                       !- Outside Boundary Condition Object
  Sunexposed,                             !- Sun Exposure
  Windexposed,                            !- Wind Exposure
  ,                                       !- View Factor to Ground
  ,                                       !- Number of Vertices
  5, 5, 3,                                !- X,Y,Z Vertex 1 {m}
  5, 5, 0,                                !- X,Y,Z Vertex 2 {m}
  0, 5, 0,                                !- X,Y,Z Vertex 3 {m}
  0, 5, 3;                                !- X,Y,Z Vertex 4 {m}

BuildingSurface:Detailed,
  zone_0_Srf_3,                           !- Name
  Wall,                                   !- Surface Type
  WALL,                                   !- Construction Name
  zone_0,                                 !- Zone Name
  Outdoors,                               !- Outside Boundary Condition
  ,                                       !- Outside Boundary Condition Object
  Sunexposed,                             !- Sun Exposure
  Windexposed,                            !- Wind Exposure
  ,                                       !- View Factor to Ground
  ,                                       !- Number of Vertices
  0, 5, 3,                                !- X,Y,Z Vertex 1 {m}
  0, 5, 0,                                !- X,Y,Z Vertex 2 {m}
  0, 0, 0,                                !- X,Y,Z Vertex 3 {m}
  0, 0, 3;                                !- X,Y,Z Vertex 4 {m}

FenestrationSurface:Detailed,
  zone_0_Srf_3_glz_0_51e96df039e64dbc9b18, !- Name
  Window,                                 !- Surface Type
  Exterior Window,                        !- Construction Name
  zone_0_Srf_3,                           !- Building Surface Name
  ,                                       !- Outside Boundary Condition Object
  ,                                       !- View Factor to Ground
  ,                                       !- Shading Control Name
  ,                                       !- Frame and Divider Name
  ,                                       !- Multiplier
  ,                                       !- Number of Vertices
  0, 3.75, 2.59999990463257,              !- X,Y,Z Vertex 1 {m}
  0, 3.75, 0.400000005960464,             !- X,Y,Z Vertex 2 {m}
  0, 1.25, 0.400000005960464,             !- X,Y,Z Vertex 3 {m}
  0, 1.25, 2.59999990463257;              !- X,Y,Z Vertex 4 {m}

BuildingSurface:Detailed,
  zone_0_Srf_4,                           !- Name
  Floor,                                  !- Surface Type
  FLOOR,                                  !- Construction Name
  zone_0,                                 !- Zone Name
  Ground,                                 !- Outside Boundary Condition
  ,                                       !- Outside Boundary Condition Object
  Nosun,                                  !- Sun Exposure
  Nowind,                                 !- Wind Exposure
  ,                                       !- View Factor to Ground
  ,                                       !- Number of Vertices
  5, 0, 0,                                !- X,Y,Z Vertex 1 {m}
  0, 0, 0,                                !- X,Y,Z Vertex 2 {m}
  0, 5, 0,                                !- X,Y,Z Vertex 3 {m}
  5, 5, 0;                                !- X,Y,Z Vertex 4 {m}

BuildingSurface:Detailed,
  zone_0_Srf_5,                           !- Name
  Roof,                                   !- Surface Type
  ROOF,                                   !- Construction Name
  zone_0,                                 !- Zone Name
  Outdoors,                               !- Outside Boundary Condition
  ,                                       !- Outside Boundary Condition Object
  Sunexposed,                             !- Sun Exposure
  Windexposed,                            !- Wind Exposure
  ,                                       !- View Factor to Ground
  ,                                       !- Number of Vertices
  0, 5, 3,                                !- X,Y,Z Vertex 1 {m}
  0, 0, 3,                                !- X,Y,Z Vertex 2 {m}
  5, 0, 3,                                !- X,Y,Z Vertex 3 {m}
  5, 5, 3;                                !- X,Y,Z Vertex 4 {m}

ZoneControl:Thermostat,
  zone_0 Thermostat,                      !- Name
  zone_0,                                 !- Zone or ZoneList Name
  zone_0 Thermostat Schedule,             !- Control Type Schedule Name
  ThermostatSetpoint:DualSetpoint,        !- Control Object Type 1
  dualSetPtThermostatzone_0;              !- Control Name 1

Schedule:Compact,
  zone_0 Thermostat Schedule,             !- Name
  zone_0 Thermostat Schedule Type Limits, !- Schedule Type Limits Name
  Through: 12/31,                         !- Field 1
  For: AllDays,                           !- Field 2
  Until: 24:00,                           !- Field 3
  4;                                      !- Field 4

ScheduleTypeLimits,
  zone_0 Thermostat Schedule Type Limits, !- Name
  0,                                      !- Lower Limit Value {BasedOnField A3}
  4,                                      !- Upper Limit Value {BasedOnField A3}
  DISCRETE;                               !- Numeric Type

ThermostatSetpoint:DualSetpoint,
  dualSetPtThermostatzone_0,              !- Name
  MIDRISEAPARTMENT APARTMENT HTGSETP SETPT 20.0 , !- Heating Setpoint Temperature Schedule Name
  MIDRISEAPARTMENT APARTMENT CLGSETP SETPT 28.0 ; !- Cooling Setpoint Temperature Schedule Name

Schedule:Year,
  MIDRISEAPARTMENT APARTMENT HTGSETP SETPT 20.0 , !- Name
  Schedule Type Limits 3,                 !- Schedule Type Limits Name
  SETPT 20.0  {7CD2F102-3EEC-404D-8628-98CA9CB5C387}, !- Schedule:Week Name 1
  1,                                      !- Start Month 1
  1,                                      !- Start Day 1
  12,                                     !- End Month 1
  31;                                     !- End Day 1

ScheduleTypeLimits,
  Schedule Type Limits 3,                 !- Name
  ,                                       !- Lower Limit Value {BasedOnField A3}
  ,                                       !- Upper Limit Value {BasedOnField A3}
  Continuous,                             !- Numeric Type
  temperature;                            !- Unit Type

Schedule:Week:Daily,
  SETPT 20.0  {7CD2F102-3EEC-404D-8628-98CA9CB5C387}, !- Name
  MIDRISEAPARTMENT APARTMENT HTGSETP DEFAULT SCHEDULESETPT 20.0 , !- Sunday Schedule:Day Name
  MIDRISEAPARTMENT APARTMENT HTGSETP DEFAULT SCHEDULESETPT 20.0 , !- Monday Schedule:Day Name
  MIDRISEAPARTMENT APARTMENT HTGSETP DEFAULT SCHEDULESETPT 20.0 , !- Tuesday Schedule:Day Name
  MIDRISEAPARTMENT APARTMENT HTGSETP DEFAULT SCHEDULESETPT 20.0 , !- Wednesday Schedule:Day Name
  MIDRISEAPARTMENT APARTMENT HTGSETP DEFAULT SCHEDULESETPT 20.0 , !- Thursday Schedule:Day Name
  MIDRISEAPARTMENT APARTMENT HTGSETP DEFAULT SCHEDULESETPT 20.0 , !- Friday Schedule:Day Name
  MIDRISEAPARTMENT APARTMENT HTGSETP DEFAULT SCHEDULESETPT 20.0 , !- Saturday Schedule:Day Name
  MIDRISEAPARTMENT APARTMENT HTGSETP DEFAULT SCHEDULESETPT 20.0 , !- Holiday Schedule:Day Name
  SCHEDULE DAY 5SETPT 20.0 ,              !- SummerDesignDay Schedule:Day Name
  SCHEDULE DAY 4SETPT 20.0 ,              !- WinterDesignDay Schedule:Day Name
  MIDRISEAPARTMENT APARTMENT HTGSETP DEFAULT SCHEDULESETPT 20.0 , !- CustomDay1 Schedule:Day Name
  MIDRISEAPARTMENT APARTMENT HTGSETP DEFAULT SCHEDULESETPT 20.0 ; !- CustomDay2 Schedule:Day Name

Schedule:Day:Interval,
  MIDRISEAPARTMENT APARTMENT HTGSETP DEFAULT SCHEDULESETPT 20.0 , !- Name
  Schedule Type Limits 3,                 !- Schedule Type Limits Name
  No,                                     !- Interpolate to Timestep
  24:00,                                  !- Time 1 {hh:mm}
  20;                                     !- Value Until Time 1

Schedule:Day:Interval,
  SCHEDULE DAY 5SETPT 20.0 ,              !- Name
  Schedule Type Limits 3,                 !- Schedule Type Limits Name
  No,                                     !- Interpolate to Timestep
  24:00,                                  !- Time 1 {hh:mm}
  20;                                     !- Value Until Time 1

Schedule:Day:Interval,
  SCHEDULE DAY 4SETPT 20.0 ,              !- Name
  Schedule Type Limits 3,                 !- Schedule Type Limits Name
  No,                                     !- Interpolate to Timestep
  24:00,                                  !- Time 1 {hh:mm}
  20;                                     !- Value Until Time 1

Schedule:Year,
  MIDRISEAPARTMENT APARTMENT CLGSETP SETPT 28.0 , !- Name
  Schedule Type Limits 4,                 !- Schedule Type Limits Name
  SETPT 28.0  {ECBD0E11-2ABE-4B29-B590-1DB13F5BA0B2}, !- Schedule:Week Name 1
  1,                                      !- Start Month 1
  1,                                      !- Start Day 1
  12,                                     !- End Month 1
  31;                                     !- End Day 1

ScheduleTypeLimits,
  Schedule Type Limits 4,                 !- Name
  ,                                       !- Lower Limit Value {BasedOnField A3}
  ,                                       !- Upper Limit Value {BasedOnField A3}
  Continuous,                             !- Numeric Type
  temperature;                            !- Unit Type

Schedule:Week:Daily,
  SETPT 28.0  {ECBD0E11-2ABE-4B29-B590-1DB13F5BA0B2}, !- Name
  MIDRISEAPARTMENT APARTMENT CLGSETP DEFAULT SCHEDULESETPT 28.0 , !- Sunday Schedule:Day Name
  MIDRISEAPARTMENT APARTMENT CLGSETP DEFAULT SCHEDULESETPT 28.0 , !- Monday Schedule:Day Name
  MIDRISEAPARTMENT APARTMENT CLGSETP DEFAULT SCHEDULESETPT 28.0 , !- Tuesday Schedule:Day Name
  MIDRISEAPARTMENT APARTMENT CLGSETP DEFAULT SCHEDULESETPT 28.0 , !- Wednesday Schedule:Day Name
  MIDRISEAPARTMENT APARTMENT CLGSETP DEFAULT SCHEDULESETPT 28.0 , !- Thursday Schedule:Day Name
  MIDRISEAPARTMENT APARTMENT CLGSETP DEFAULT SCHEDULESETPT 28.0 , !- Friday Schedule:Day Name
  MIDRISEAPARTMENT APARTMENT CLGSETP DEFAULT SCHEDULESETPT 28.0 , !- Saturday Schedule:Day Name
  MIDRISEAPARTMENT APARTMENT CLGSETP DEFAULT SCHEDULESETPT 28.0 , !- Holiday Schedule:Day Name
  SCHEDULE DAY 3SETPT 28.0 ,              !- SummerDesignDay Schedule:Day Name
  SCHEDULE DAY 2SETPT 28.0 ,              !- WinterDesignDay Schedule:Day Name
  MIDRISEAPARTMENT APARTMENT CLGSETP DEFAULT SCHEDULESETPT 28.0 , !- CustomDay1 Schedule:Day Name
  MIDRISEAPARTMENT APARTMENT CLGSETP DEFAULT SCHEDULESETPT 28.0 ; !- CustomDay2 Schedule:Day Name

Schedule:Day:Interval,
  MIDRISEAPARTMENT APARTMENT CLGSETP DEFAULT SCHEDULESETPT 28.0 , !- Name
  Schedule Type Limits 4,                 !- Schedule Type Limits Name
  No,                                     !- Interpolate to Timestep
  24:00,                                  !- Time 1 {hh:mm}
  28;                                     !- Value Until Time 1

Schedule:Day:Interval,
  SCHEDULE DAY 3SETPT 28.0 ,              !- Name
  Schedule Type Limits 4,                 !- Schedule Type Limits Name
  No,                                     !- Interpolate to Timestep
  24:00,                                  !- Time 1 {hh:mm}
  28;                                     !- Value Until Time 1

Schedule:Day:Interval,
  SCHEDULE DAY 2SETPT 28.0 ,              !- Name
  Schedule Type Limits 4,                 !- Schedule Type Limits Name
  No,                                     !- Interpolate to Timestep
  24:00,                                  !- Time 1 {hh:mm}
  28;                                     !- Value Until Time 1

ZoneHVAC:EquipmentConnections,
  zone_0,                                 !- Zone Name
  zone_0 Equipment List,                  !- Zone Conditioning Equipment List Name
  zone_0 Inlet Node List,                 !- Zone Air Inlet Node or NodeList Name
  zone_0 Exhaust Node List,               !- Zone Air Exhaust Node or NodeList Name
  Node 1,                                 !- Zone Air Node Name
  zone_0 Return Air Node;                 !- Zone Return Air Node or NodeList Name

NodeList,
  zone_0 Inlet Node List,                 !- Name
  Node 3;                                 !- Node Name 1

NodeList,
  zone_0 Exhaust Node List,               !- Name
  Node 2;                                 !- Node Name 1

ZoneHVAC:IdealLoadsAirSystem,
  zone_0 IDEAL LOADS AIR SYSTEM,          !- Name
  ,                                       !- Availability Schedule Name
  Node 3,                                 !- Zone Supply Air Node Name
  Node 2,                                 !- Zone Exhaust Air Node Name
  ,                                       !- System Inlet Air Node Name
  ,                                       !- Maximum Heating Supply Air Temperature {C}
  ,                                       !- Minimum Cooling Supply Air Temperature {C}
  ,                                       !- Maximum Heating Supply Air Humidity Ratio {kgWater/kgDryAir}
  ,                                       !- Minimum Cooling Supply Air Humidity Ratio {kgWater/kgDryAir}
  ,                                       !- Heating Limit
  ,                                       !- Maximum Heating Air Flow Rate {m3/s}
  ,                                       !- Maximum Sensible Heating Capacity {W}
  LimitFlowRate,                          !- Cooling Limit
  Autosize,                               !- Maximum Cooling Air Flow Rate {m3/s}
  ,                                       !- Maximum Total Cooling Capacity {W}
  ,                                       !- Heating Availability Schedule Name
  ,                                       !- Cooling Availability Schedule Name
  None,                                   !- Dehumidification Control Type
  ,                                       !- Cooling Sensible Heat Ratio {dimensionless}
  None,                                   !- Humidification Control Type
  zone_0_DSOA,                            !- Design Specification Outdoor Air Object Name
  ,                                       !- Outdoor Air Inlet Node Name
  ,                                       !- Demand Controlled Ventilation Type
  DifferentialDryBulb,                    !- Outdoor Air Economizer Type
  ,                                       !- Heat Recovery Type
  ,                                       !- Sensible Heat Recovery Effectiveness {dimensionless}
  ;                                       !- Latent Heat Recovery Effectiveness {dimensionless}

DesignSpecification:OutdoorAir,